35

C          0.90671       -0.05564        0.03380
C          2.42653       -0.06814        0.02520
C          2.96584       -1.45371       -0.32352
C          4.49319       -1.46946       -0.32993
C          5.02558       -2.85790       -0.67700
C          6.55269       -2.87721       -0.68194
C          7.08025       -4.26743       -1.03079
C          8.60775       -4.29104       -1.03713
C          9.13133       -5.68297       -1.38721
C         10.65783       -5.71449       -1.39603
C         11.17771       -7.09980       -1.74425
H          0.53724        0.94283        0.28545
H          0.51425       -0.76098        0.77322
H          0.50789       -0.32972       -0.94798
H          2.79608        0.23880        1.01039
H          2.78999        0.66722       -0.70196
H          2.59174       -1.75715       -1.30885
H          2.59398       -2.18696        0.40275
H          4.86925       -1.16653        0.65618
H          4.86706       -0.73736       -1.05644
H          4.65008       -3.15973       -1.66311
H          4.65037       -3.58823        0.04900
H          6.92865       -2.57649        0.30342
H          6.92884       -2.14730       -1.40892
H          6.70313       -4.56837       -2.01590
H          6.70384       -4.99728       -0.30344
H          8.98571       -3.99145       -0.05186
H          8.98459       -3.56140       -1.76443
H          8.75123       -5.98161       -2.37166
H          8.75267       -6.41171       -0.66011
H         11.04321       -5.42014       -0.41250
H         11.04173       -4.99107       -2.12502
H         10.83445       -7.84041       -1.01382
H         12.27165       -7.10483       -1.74592
H         10.83303       -7.40930       -2.73528
