38

C          0.87583       -0.04940        0.09147
C          2.39420       -0.04824        0.08219
C          2.92930        0.40281       -1.27356
C          4.45319        0.40553       -1.28704
C          4.97563        0.85942       -2.64542
C          6.49877        0.86512       -2.66113
C          7.01790        1.32083       -4.01805
C          8.54100        1.32781       -4.03299
C          9.06419        1.78295       -5.39104
C         10.58821        1.79044       -5.40160
C         11.12385        2.24613       -6.75559
C         12.64040        2.25221       -6.75960
H          0.50300       -0.37348        1.06702
H          0.48325       -0.73030       -0.67006
H          0.48510        0.95244       -0.11024
H          2.76183       -1.05502        0.31113
H          2.76352        0.62014        0.86882
H          2.55799        1.40989       -1.50138
H          2.55570       -0.26440       -2.05996
H          4.82935       -0.60037       -1.06391
H          4.83121        1.07423       -0.50397
H          4.59993        1.86500       -2.87007
H          4.60013        0.19078       -3.42964
H          6.87541       -0.14100       -2.43800
H          6.87480        1.53292       -1.87651
H          6.64053        2.32611       -4.24154
H          6.64249        0.65212       -4.80252
H          8.91786        0.32313       -3.80802
H          8.91495        1.99712       -3.24808
H          8.68523        2.78796       -5.61400
H          8.68899        1.11355       -6.17419
H         10.96238        0.78475       -5.17505
H         10.95803        2.45819       -4.61415
H         10.75348        3.25232       -6.98383
H         10.75865        1.57817       -7.54504
H         13.03183        2.93291       -5.99836
H         13.01888        2.58014       -7.73470
H         13.03588        1.25057       -6.56339
