14

C          1.02685       -0.00479        0.08066
C          2.54581       -0.01115        0.09166
C          3.09021       -0.74373        1.31635
C          4.60976       -0.74845        1.32808
H          0.65508        0.52357       -0.80267
H          0.63068        0.49795        0.96921
H          0.63080       -1.02539        0.05824
H          2.91131        1.02241        0.08250
H          2.91142       -0.49211       -0.82331
H          2.72581       -1.77765        1.32458
H          2.72360       -0.26355        2.23119
H          5.00618       -1.25005        0.43958
H          4.98091       -1.27697        2.21162
H          5.00386        0.27251        1.35129
