20

C          0.87970       -0.02621        0.01052
C          2.39815       -0.03679        0.01660
C          2.93418       -1.14834        0.91599
C          4.46073       -1.16105        0.92633
C          4.99666       -2.27385        1.82420
C          6.51502       -2.28274        1.83157
H          0.50669        0.77356       -0.63658
H          0.48627        0.13955        1.01879
H          0.48397       -0.97738       -0.36020
H          2.76639        0.93577        0.36391
H          2.76413       -0.17512       -1.00766
H          2.56072       -2.11833        0.56546
H          2.56070       -1.00797        1.93775
H          4.83416       -0.19153        1.27823
H          4.83432       -1.30002       -0.09563
H          4.62959       -3.24607        1.47464
H          4.62950       -2.13779        2.84836
H          6.90968       -2.44667        0.82367
H          6.88826       -3.08384        2.47777
H          6.90960       -1.33241        2.20478
