23

C          1.02750       -0.05605        0.07075
C          2.54314       -0.05232        0.07079
C          3.06974        1.13196        0.87513
C          4.59177        1.14121        0.88095
C          5.10938        2.32499        1.68556
C          6.63466        2.34084        1.69653
C          7.14280        3.52196        2.49902
H          0.65018       -0.90355       -0.50497
H          0.63517        0.86393       -0.37678
H          0.63752       -0.13473        1.09170
H          2.90986        0.00289       -0.95878
H          2.91209       -0.98904        0.49998
H          2.69626        1.07658        1.90387
H          2.69563        2.06856        0.44473
H          4.96790        1.19768       -0.14887
H          4.96779        0.20536        1.31229
H          4.73211        2.26740        2.71276
H          4.73165        3.25947        1.25369
H          7.01486        2.40253        0.67222
H          7.01478        1.41128        2.13145
H          6.79323        4.46633        2.06713
H          8.23453        3.53372        2.50702
H          6.79321        3.46838        3.53610
